Q1
.include bc547.txt
*after solving Rc=3k,Re=2k,R1=27k given R2=10k
*passive elements in the cicuit
Re 0 1 2k
R2 0 2 10k
Rc 6 7 3k
R1 2 7 27k

*biasing voltage
Vba 7 0 dc 10v

*voltage sources for measuring currents
vie 3 1 dc 0v
vic 6 5 dc 0v
vib 2 4 dc 0v

*nodes of the transistor
q1 5 4 3 bc547a

*transient analysis
.tran 0.01ms 2ms

.control
run
plot i(vic) 
plot v(5)
plot i(vie) 
plot v(3)
plot i(vib) 
plot v(4)
.endc
.end
