Q11(100KHz)
*Passive Components
C 1 2 1u
R 2 0 1k

*Square wave of 100Hz and -5 to +5 range
vin 1 0 pulse(0 10 0 0 0 1us 10us )

*transient analysis
.tran 0.1us 100us

*control and run
.control
run

*plots
plot v(2) v(1)
*v(2) is output voltage and v(1) is input voltage

.endc
.end
